18

N 4.875274056553121 1.8296264373035593 2.5375171583767173
C 4.0800547824531215 2.583085436103559 2.9051964292767174
C 3.0601248144531215 3.5492432438035593 3.363558457276717
O 3.4177246004531217 4.890494266003559 3.159128256976717
C 4.236118007553122 5.48314160210356 4.164827410576717
C 5.721315174453121 5.171557400103559 4.009321414176718
C 6.441230100653122 5.777111597603559 2.7871855580767173
C 7.259305851853122 6.554396244503559 3.8390419024767173
O 6.492067571553122 5.98235171800356 4.925450164176717
H 2.145500425653122 3.3695069253035594 2.788446627076717
H 2.8358823406531215 3.3412752351035593 4.420537369876717
H 4.088442812053121 6.56272959030356 4.064595762276717
H 3.8936092021531215 5.186273125003559 5.167732279376717
H 5.918779775353121 4.10438833930356 4.1657627438767175
H 6.999701689253122 5.071129086903559 2.172734928476717
H 5.804169551353121 6.38774033390356 2.1447427412767173
H 8.318898099253122 6.28083898030356 3.9066993200767173
H 7.176126639953122 7.647009305103559 3.813793997476717
