206

C 2.8720046677685875 2.9306419053673114 5.702316525229998
C 4.547049087775552 4.043639052473796 7.087376483624245
C 7.246025698860791 7.259628424268174 3.7351082428886695
C 6.047517470227299 8.147949598002123 3.5168825836517064
C 10.791651906364487 8.451219202388794 3.9387622446885224
C 10.919829849835558 7.250471735281341 5.015882842668555
C 15.046491058672697 6.4921729064058855 3.5520971732583133
C 4.79333584322844 10.338269014551477 15.838796728112799
C 5.0228356921431505 8.835508161508681 15.742432986977615
C 6.290633795471014 8.543950634264014 15.033493122877246
C 4.1423804804004085 10.87429584865114 14.552331487798147
C 4.747402120506623 12.152329537565866 12.455205189966337
C 4.08029478456099 11.257275563805367 11.379311305299096
C 4.26404273277466 9.194727201680939 9.994019848072696
C 5.1020580345357285 7.931255629199059 9.98606454098349
C 6.604308404678308 8.218979734473102 9.737238762993268
C 7.440476151198985 6.885482958525172 9.704878935680489
C 6.477717875039957 12.566172124155193 5.8575821017064715
C 8.063419004764295 14.536305431210058 5.825381594435566
C 8.241216339839301 15.577825082051758 6.9823479685277
C 9.27368408107472 14.38700998463783 4.929273373107154
C 10.609780314546201 12.86244498779949 3.4094400868477868
C 11.999611464385207 13.247486391466511 3.8330413673389714
C 13.72576141924266 12.942014584069854 5.566359834237549
C 14.820127037691021 12.15552067882191 4.789640586447289
C 14.584621740726664 10.669675732116517 5.015959461841703
C 14.077194984446788 14.450328797868176 5.476936380834175
C 14.432680784338597 12.101614770262453 11.530794839679306
C 12.768080887830974 12.98296545038521 9.952356630617308
C 11.852850249038072 13.618795027298454 11.015063043735987
C 10.401834271178135 13.092491734222943 13.05768601762237
C 9.580336501460684 11.895088550994501 13.558207818401623
C 8.54132214664302 12.252473058345196 14.635964342700415
C 11.133903019863904 13.770252039487497 14.191157107843486
C 16.70949847638958 7.413273366006898 14.435124753286427
N 3.3600796368234667 3.372777469755899 6.996553676481374
N 4.923093524495103 4.879749273969568 6.059885134264833
N 5.22692605510752 3.9567614471043697 8.274686488908817
N 14.703258550009831 7.184059576448282 4.788239144847703
N 5.063315381770077 11.447414772024116 13.690497172796704
N 4.634244114982447 10.053232095936377 11.159991388627823
N 7.533555095444957 13.300426733147193 6.389427380622417
N 9.613163649524157 13.120704212624345 4.471461822372459
N 12.33466108031336 12.776791132222536 5.08666133545617
N 14.521823263767228 10.325506869692774 6.281772909365317
N 13.175643153649279 15.315158662293166 6.0911862907369585
N 13.56721759838793 11.973489783914513 10.571932090681788
N 11.159917330065424 12.710823546626552 11.819969396622156
N 12.290402057004957 13.105705943696144 14.627294849210863
O 6.036460777893522 9.056529625915056 4.373331528336703
O 5.137448092591329 8.028329543278186 2.650937867747981
O 9.858608084006663 6.849690793286243 5.637966028652588
O 12.056879485112 6.745939801428779 5.2407353626945445
O 6.323262929763297 7.376019509393892 14.489243107078796
O 7.310457477896665 9.349007891010517 15.10729738935203
O 2.9529979224229024 11.015589415458134 14.334268188350972
O 3.221032439423846 11.693658016381335 10.599010582210074
O 8.730368037989987 6.88936802941322 10.028740864476829
O 6.927797525489716 5.875794929488306 9.145000064124119
O 5.909443543998108 12.9285372385548 4.816801690003679
O 9.942357728368565 15.330652588436857 4.462091043943792
O 12.777542659863744 13.913833596855769 3.09737455481703
O 14.436841864989061 9.886684868652301 4.0616782904274435
O 15.120163744497507 14.883458740578801 4.993240237105318
O 14.491711033315857 13.144379227713292 12.182896487729437
O 11.800815490406121 14.866785359758671 11.166879276996706
O 8.82962111963147 11.31968899665292 12.418216823322176
O 10.775964674304058 14.924021313278134 14.680461011739371
O 15.456071621442355 6.735284997795084 14.03017851634943
O 13.01864471637495 6.208485350487946 14.553690231974974
O 14.181400587419617 8.315868357679578 15.749743529055063
O 13.715106254903393 8.259478667016428 13.251929555253636
O 11.149319881584237 8.299303102979124 13.125983459247205
O 12.550353266741102 10.38672359257257 14.09821364941596
O 12.648076765906831 9.722504599360176 11.597362273338053
O 12.174250728549488 9.891423610083443 9.233634646016228
O 10.24424202546239 9.68358168830138 10.908131697369837
O 11.56563411181977 7.54820851153044 10.374915996463592
O 8.433318204958415 10.879377091795606 8.357058086995139
O 17.5355403800793 8.857934745758824 11.046451346162293
O 15.559617543724393 12.224667366184248 8.051373851128954
O 11.048721977894232 14.163838571147435 7.778314942430813
O 11.02522151262396 11.532074054032107 7.5786438306847685
O 14.022217326397655 7.899325079582148 7.893397917805177
O 15.09496657444597 8.169346762278881 10.704139480751769
O 7.766482064669361 8.46593799280523 6.956133873999088
O 13.587831787116695 5.909338429716803 9.844428427041944
O 7.952138353057144 8.019459542966018 12.606090791654399
O 9.826829404967993 5.680242460531496 12.376732154348904
O 15.067853990521993 5.331644790775497 7.771610629675782
O 12.325341335031592 5.054341884753305 12.331405295141646
O 10.900169980904295 4.945413471808166 8.33265473574044
O 17.058218652685365 7.081369289617701 8.680091592080727
O 17.36172163054544 10.30364701112836 8.553411019549893
O 8.179965973341078 3.8592740175833367 10.453340966415995
O 10.604531330587545 2.609440504435402 10.22089892364951
O 7.915323320222231 5.157402672371795 6.498647052027789
H 2.762195334444799 1.8217444702005965 5.6189360924576714
H 3.57324376419833 3.1680009042020005 4.907534306521124
H 3.2153787792234896 2.6650452956225967 7.771209400325039
H 4.3778007795009275 5.087342668378384 5.261039094581901
H 5.749521022019455 5.392352914953428 6.196404433815956
H 4.942244566901009 3.3608355976626703 9.024963095918437
H 5.706635413881283 4.776444944654616 8.590807054752737
H 6.903082724461756 6.633480670023754 4.5462739337974725
H 8.13877624974119 7.827108416239048 4.056319007777091
H 11.1752558520615 9.345794056728753 4.385101719924218
H 9.791979307626404 8.799105173204808 3.853621938413225
H 14.589475580704386 6.919840092312194 2.662968495803356
H 14.695563523580578 5.387963774531226 3.572787163529892
H 13.779894040380436 6.818898283384426 5.179913490252689
H 15.458423674729238 7.238743883675566 5.465220067353515
H 14.481754547583812 8.21050614074949 4.572334617466465
H 5.798743643733409 10.79609928727075 15.94345461839283
H 4.865239065824607 8.270525175369453 16.64760909464626
H 4.157373503324779 8.443155926565696 15.134352657921024
H 6.016889553236252 11.207160898902687 13.901129412438252
H 4.152439193420961 13.023146387050096 12.735157345084625
H 5.148921941807596 9.598054967418625 11.932215777750619
H 4.373470446478439 9.825464788559986 9.116242011116215
H 5.106034048422723 7.4565819081205476 10.941162559248507
H 4.715691087811601 7.210926981929962 9.225577920151633
H 6.716962386921791 8.783494514581871 8.779003234055942
H 6.961042735501275 8.862947671831083 10.48917584499551
H 7.991200455997262 12.860002466217995 7.173435754311729
H 7.185786554436119 14.83844246235972 5.211529651652283
H 9.127317058616882 15.323975173771403 7.61533805810569
H 8.492588290007003 16.52650417780054 6.504015058457818
H 7.232828493936218 15.713716585728749 7.415827499139223
H 8.966835066257456 12.325675512792115 4.720556514638751
H 10.558322641745468 11.747241484803656 3.158343786187051
H 10.319862163975355 13.456331690621235 2.5179549048340606
H 11.593502224243787 12.18663462523528 5.5103716341028885
H 13.754253008787906 12.524994899412885 6.623336044965761
H 14.779904966412484 12.42481290643132 3.7310576646975466
H 15.799821431506846 12.491282760138244 5.161044113242624
H 14.426566311307631 9.303878569632026 6.603069826733339
H 14.807683561804915 10.89448233376071 7.074761505644854
H 12.241175710232866 15.03406108516045 6.202467409975615
H 13.593890541057604 11.108392351251032 10.117507586637755
H 13.360409157480243 13.785534718767243 9.50636523992789
H 12.217370827100433 12.449980582196178 9.21873672675288
H 11.301604802388164 11.69897667982532 11.72733866634414
H 9.684451459703082 13.83295427169484 12.74350543734538
H 10.415269257595861 11.16944275494528 13.89464533931934
H 9.573522729041425 10.920909764372052 11.835310731698502
H 8.086125945060106 13.226279499969962 14.38346967019457
H 7.765462414722786 11.419807135625891 14.699458124831065
H 8.908446196665471 12.380451187475048 15.645958236677304
H 12.470513702058927 12.124719168497487 14.199053974909903
H 16.641521016187752 7.5211282510929 15.545316105758378
H 16.79203284295717 8.35773647789257 13.925467804339531
H 8.144005764592233 10.079851427326846 7.881783368640006
H 8.619355991828684 10.564597523848239 9.268827072116215
H 17.91044738465543 8.053675674736107 10.687502071336922
H 18.293704932253952 9.37876274505266 11.311323400913388
H 16.019640629703353 11.41338486007962 8.26685463204828
H 15.23002558778268 12.544037682162275 8.8913763805538
H 10.899790847580794 13.168114131384085 7.800161389265353
H 10.814590334784631 14.480602635358517 8.686037051363005
H 11.554495223808235 10.914863951337995 8.14005810876423
H 10.035413582923391 11.325700707644787 7.75122701683939
H 13.028181323013204 8.010437752500017 7.864393190447942
H 14.268111444670042 8.062598688096424 8.863103847276847
H 16.02736331869299 8.274424319113727 10.739307414564847
H 14.82404183809787 8.129870390726955 11.64217912516606
H 7.0059360193194555 8.550288419827458 6.2893297707149385
H 8.512227219059307 7.858814458324424 6.6184431549430425
H 12.921719512058115 6.681517436999917 9.886403969556675
H 14.341464611482774 6.166024396966435 10.314309306367338
H 7.451903895143241 7.386557467137685 13.194951649114003
H 8.198826919337199 8.7722836576707 13.245668340109013
H 9.520383603289241 5.178088129590673 11.584420091468594
H 10.905830188681755 5.422432338186845 12.410886734163558
H 15.711180877760302 6.032732074099352 7.667497201791161
H 14.331405284653018 5.746473758322451 8.220824075608922
H 12.592935296275927 5.346978048588667 11.43201712760715
H 12.7856340267887 5.6356079207144285 13.098320298975024
H 10.777891694731837 5.86352237260539 8.79963790289154
H 11.28142822371699 5.225085494002314 7.4278332748232625
H 17.971211549338097 7.478629119905486 8.824924056687212
H 17.183335996941764 6.192755476267745 9.131892271436051
H 16.996864940792314 9.504489142959489 9.039012611890273
H 17.57535517340805 11.032907163189003 9.211133888425511
H 7.654569650193142 3.121688885178507 10.11090059128726
H 7.923906915571017 4.672058073887983 9.962522970429642
H 9.763338279814144 3.109371268325349 10.343559379951166
H 11.054957488209093 2.5446162620927497 11.068624810023602
H 8.098993155354261 5.1127292392400925 7.453930558484743
H 8.618067068077707 5.725903441906909 6.149350964570285
P 14.03601543508903 7.355881688012605 14.589198156604201
P 12.357113505212046 9.234310697954093 13.14406020990377
P 11.611954539132853 9.153137365865717 10.474555554838476
Mg 9.717827580003155 7.603604743947491 11.524563038929518
H 17.50048110170556 6.675150389810433 14.23632597002367
H 12.99875668300868 13.54427484421123 15.345550402551591
H 15.312102541411548 11.457210582854055 11.67694754670191
H 6.090840296658971 11.73877651045176 6.47056027098092
H 4.159532570666038 10.554254323052291 16.711518765359894
H 5.6903411416026355 12.578520917005582 12.08207397023992
H 3.2485463064663804 8.804352838456266 10.15642323825481
H 1.8358301670133024 3.2871806982348843 5.606282731538131
H 7.656076125356925 6.531962092086193 3.019314729048711
H 11.314907976694698 8.153045517319397 3.018275669755317
H 16.13508057554176 6.416811419365974 3.4131961077759447
H 13.35823037924743 16.370896769155188 5.842029804874066
